@<TRIPOS>MOLECULE
A04
    9     8     1     0     0
SMALL
resp


@<TRIPOS>ATOM
      1 C1          -1.2160    -0.2390    -0.0220 c3         1 A04    -0.311640
      2 C2           0.0850     0.5560     0.0470 c3         1 A04     0.479490
      3 O1           1.2410    -0.2600    -0.1100 oh         1 A04    -0.717760
      4 H1          -2.0870     0.4240     0.0490 hc         1 A04     0.070000
      5 H2          -1.2810    -0.9620     0.8030 hc         1 A04     0.070000
      6 H3          -1.2760    -0.7940    -0.9640 hc         1 A04     0.070000
      7 H4           0.1300     1.1300     0.9880 h1         1 A04    -0.039160
      8 H5           0.1300     1.2800    -0.7730 h1         1 A04    -0.039160
      9 H6           1.2490    -0.8950     0.6240 ho         1 A04     0.418230
@<TRIPOS>BOND
     1     1     2 1   
     2     1     4 1   
     3     1     5 1   
     4     1     6 1   
     5     2     3 1   
     6     2     7 1   
     7     2     8 1   
     8     3     9 1   
@<TRIPOS>SUBSTRUCTURE
     1 A04         1 TEMP              0 ****  ****    0 ROOT
