@<TRIPOS>MOLECULE
A11
   12    11     1     0     0
SMALL
resp


@<TRIPOS>ATOM
      1 C1           1.2730    -0.6670     0.0980 c3         1 A11    -0.551360
      2 C2           0.0000     0.0400    -0.3710 c3         1 A11     0.625940
      3 C3          -1.2730    -0.6670     0.0980 c3         1 A11    -0.551360
      4 O1           0.0000     1.4150     0.0230 oh         1 A11    -0.734700
      5 H1           1.3250    -1.6940    -0.2830 hc         1 A11     0.129000
      6 H2           1.3070    -0.7190     1.1950 hc         1 A11     0.129000
      7 H3           2.1590    -0.1230    -0.2450 hc         1 A11     0.129000
      8 H4           0.0000     0.0800    -1.4670 h1         1 A11     0.015380
      9 H5          -1.3070    -0.7190     1.1950 hc         1 A11     0.129000
     10 H6          -1.3250    -1.6940    -0.2830 hc         1 A11     0.129000
     11 H7          -2.1590    -0.1230    -0.2450 hc         1 A11     0.129000
     12 H8           0.0000     1.4340     0.9940 ho         1 A11     0.422100
@<TRIPOS>BOND
     1     1     2 1   
     2     1     5 1   
     3     1     6 1   
     4     1     7 1   
     5     2     3 1   
     6     2     4 1   
     7     2     8 1   
     8     3     9 1   
     9     3    10 1   
    10     3    11 1   
    11     4    12 1   
@<TRIPOS>SUBSTRUCTURE
     1 A11         1 TEMP              0 ****  ****    0 ROOT
