@<TRIPOS>MOLECULE
E54
   10    10     1     0     0
SMALL
resp


@<TRIPOS>ATOM
      1 C1           0.9830     0.7130    -0.0000 cc         1 E54    -0.194770
      2 C2           0.9830    -0.7130    -0.0000 cc         1 E54    -0.194770
      3 C3          -0.3310    -1.1250    -0.0000 cd         1 E54    -0.212450
      4 N1          -1.1220     0.0000    -0.0000 na         1 E54    -0.214260
      5 H1          -2.1300     0.0000    -0.0000 hn         1 E54     0.326930
      6 C4          -0.3310     1.1250    -0.0000 cd         1 E54    -0.212450
      7 H2           1.8490     1.3610    -0.0000 ha         1 E54     0.161080
      8 H3           1.8490    -1.3610     0.0000 ha         1 E54     0.161080
      9 H4          -0.7680    -2.1140    -0.0000 h4         1 E54     0.189800
     10 H5          -0.7680     2.1140     0.0000 h4         1 E54     0.189810
@<TRIPOS>BOND
     1     1     2 1   
     2     1     6 2   
     3     1     7 1   
     4     2     3 2   
     5     2     8 1   
     6     3     4 1   
     7     3     9 1   
     8     4     5 1   
     9     4     6 1   
    10     6    10 1   
@<TRIPOS>SUBSTRUCTURE
     1 E54         1 TEMP              0 ****  ****    0 ROOT
